Circuit: * C:\users\adelson\Meus Documentos\LTspiceXVII\PeakDetector_adelson\PK_adelson.asc

Direct Newton iteration for .op point succeeded.

Date: Wed Feb 07 16:37:27 2024
Total elapsed time: 0.069 seconds.

tnom = 27
temp = 27
method = modified trap
totiter = 2430
traniter = 2418
tranpoints = 1182
accept = 1144
rejected = 38
matrix size = 108
fillins = 98
solver = Normal
Thread vector: 4.2/3.3[2] 1.2/1.3[1] 0.8/1.1[1] 0.4/1.2[1]  2592/500
Matrix Compiler1: 9.48 KB object code size  1.5/0.9/[0.6]
Matrix Compiler2: 10.81 KB object code size  0.6/1.0/[0.6]

